Version 4
SHEET 1 3732 3000
WIRE -1248 -656 -1520 -656
WIRE -1520 -624 -1520 -656
WIRE -1248 -272 -1248 -656
WIRE -1248 64 -1248 -192
WIRE -800 64 -1248 64
WIRE -192 64 -800 64
WIRE -1344 256 -1536 256
WIRE -960 256 -1248 256
WIRE -800 256 -800 64
WIRE -800 256 -960 256
WIRE -656 256 -800 256
WIRE -336 256 -656 256
WIRE -1536 304 -1536 256
WIRE -1344 336 -1344 256
WIRE -1296 336 -1344 336
WIRE -1008 416 -1008 336
WIRE -1008 416 -1104 416
WIRE -704 432 -704 336
WIRE -704 432 -752 432
WIRE -384 464 -384 336
WIRE -384 464 -480 464
WIRE -1248 528 -1536 528
WIRE -1536 576 -1536 528
WIRE -1248 864 -1248 528
WIRE -1248 1040 -1248 944
WIRE -864 1040 -1248 1040
WIRE -864 1120 -864 1040
WIRE -224 1120 -864 1120
WIRE -1344 1264 -2080 1264
WIRE -976 1264 -1248 1264
WIRE -864 1264 -864 1120
WIRE -864 1264 -976 1264
WIRE -656 1264 -864 1264
WIRE -352 1264 -656 1264
WIRE -2080 1312 -2080 1264
WIRE -1344 1344 -1344 1264
WIRE -1296 1344 -1344 1344
WIRE -1104 1456 -1104 416
WIRE -1104 1456 -1936 1456
WIRE -1024 1456 -1024 1344
WIRE -1024 1456 -1104 1456
WIRE -1936 1520 -1936 1456
WIRE -480 1520 -480 464
WIRE -400 1520 -400 1344
WIRE -400 1520 -480 1520
WIRE -1136 1664 -1536 1664
WIRE -1536 1728 -1536 1664
WIRE -1136 1888 -1136 1664
WIRE -1136 2080 -1136 1968
WIRE -848 2080 -1136 2080
WIRE -224 2080 -848 2080
WIRE -1344 2432 -2080 2432
WIRE -2080 2496 -2080 2432
WIRE -944 2528 -1264 2528
WIRE -848 2528 -848 2080
WIRE -848 2528 -944 2528
WIRE -608 2528 -848 2528
WIRE -304 2528 -608 2528
WIRE -1264 2544 -1264 2528
WIRE -1344 2608 -1344 2432
WIRE -1312 2608 -1344 2608
WIRE -1776 2624 -1936 2624
WIRE -1936 2704 -1936 2624
WIRE -1776 2704 -1776 2624
WIRE -992 2704 -992 2608
WIRE -992 2704 -1776 2704
WIRE -752 2704 -752 432
WIRE -752 2704 -992 2704
WIRE -704 2736 -704 1344
WIRE -704 2736 -768 2736
WIRE -656 2736 -656 2608
WIRE -656 2736 -704 2736
WIRE -480 2752 -480 1520
WIRE -352 2752 -352 2608
WIRE -352 2752 -480 2752
WIRE -768 2880 -768 2736
WIRE -480 2880 -480 2752
WIRE -480 2896 -480 2880
FLAG -2080 1392 0
FLAG -1936 1600 0
FLAG -1536 1808 0
FLAG -1248 1360 0
FLAG -976 1360 0
FLAG -656 1360 0
FLAG -1536 384 0
FLAG -1248 352 0
FLAG -960 352 0
FLAG -656 352 0
FLAG -336 352 0
FLAG -1520 -544 0
FLAG -2080 2576 0
FLAG -1936 2784 0
FLAG -768 2960 0
FLAG -480 2960 0
FLAG -304 2624 0
FLAG -608 2624 0
FLAG -944 2624 0
FLAG -1264 2624 0
FLAG -352 1360 0
FLAG -1536 656 0
SYMBOL nmos -1296 256 R0
SYMATTR InstName M1
SYMBOL nmos -1008 256 R0
SYMATTR InstName M2
SYMBOL nmos -704 256 R0
SYMATTR InstName M3
SYMBOL nmos -384 256 R0
SYMATTR InstName M4
SYMBOL nmos -1296 1264 R0
SYMATTR InstName M5
SYMBOL nmos -1024 1264 R0
SYMATTR InstName M6
SYMBOL nmos -704 1264 R0
SYMATTR InstName M7
SYMBOL nmos -400 1264 R0
SYMATTR InstName M8
SYMBOL nmos -1312 2528 R0
SYMATTR InstName M9
SYMBOL nmos -992 2528 R0
SYMATTR InstName M10
SYMBOL nmos -656 2528 R0
SYMATTR InstName M11
SYMBOL nmos -352 2528 R0
SYMATTR InstName M12
SYMBOL voltage -1936 1504 R0
WINDOW 3 24 96 Invisible 2
WINDOW 123 0 0 Left 0
WINDOW 39 0 0 Left 0
SYMATTR Value PULSE(0 1.8 24ms 0 0 10ms 100ms 1)
SYMATTR InstName V1
SYMBOL voltage -1520 -640 R0
WINDOW 3 24 96 Invisible 2
WINDOW 123 0 0 Left 0
WINDOW 39 0 0 Left 0
SYMATTR Value -1.8
SYMATTR InstName V2
SYMBOL voltage -1536 560 R0
WINDOW 3 24 96 Invisible 2
WINDOW 123 0 0 Left 0
WINDOW 39 0 0 Left 0
SYMATTR Value -1.8
SYMATTR InstName V5
SYMBOL voltage -1536 1712 R0
WINDOW 3 24 96 Invisible 2
WINDOW 123 0 0 Left 0
WINDOW 39 0 0 Left 0
SYMATTR Value -1.8
SYMATTR InstName V6
SYMBOL voltage -1936 2688 R0
WINDOW 3 24 96 Invisible 2
WINDOW 123 0 0 Left 0
WINDOW 39 0 0 Left 0
SYMATTR Value PULSE(0 1.8 48ms 0 0 10ms 100ms 1)
SYMATTR InstName V7
SYMBOL voltage -2080 2480 R0
WINDOW 3 24 96 Invisible 2
WINDOW 123 0 0 Left 0
WINDOW 39 0 0 Left 0
SYMATTR Value PULSE(0 1.8 36ms 0 0 10ms 100ms 1)
SYMATTR InstName V8
SYMBOL voltage -480 2864 R0
WINDOW 3 24 96 Invisible 2
WINDOW 123 0 0 Left 0
WINDOW 39 0 0 Left 0
SYMATTR Value PULSE(0 1.8 72ms 0 0 10ms 100ms 1)
SYMATTR InstName V9
SYMBOL voltage -768 2864 R0
WINDOW 3 24 96 Invisible 2
WINDOW 123 0 0 Left 0
WINDOW 39 0 0 Left 0
SYMATTR Value PULSE(0 1.8 60ms 0 0 10ms 100ms 1)
SYMATTR InstName V10
SYMBOL voltage -1536 288 R0
WINDOW 3 24 96 Invisible 2
WINDOW 123 0 0 Left 0
WINDOW 39 0 0 Left 0
SYMATTR Value PULSE(0 1.8 0 0 0 10ms 100ms 1)
SYMATTR InstName V12
SYMBOL voltage -2080 1296 R0
WINDOW 3 24 96 Invisible 2
WINDOW 123 0 0 Left 0
WINDOW 39 0 0 Left 0
SYMATTR Value PULSE(0 1.8 12ms 0 0 10ms 100ms 1)
SYMATTR InstName V13
SYMBOL res -1152 1872 R0
WINDOW 3 48 80 Left 2
SYMATTR Value 1KR
SYMATTR InstName R2
SYMBOL res -1264 848 R0
WINDOW 3 48 80 Left 2
SYMATTR Value 1KR
SYMATTR InstName R3
SYMBOL res -1264 -288 R0
WINDOW 3 48 80 Left 2
SYMATTR Value 1KR
SYMATTR InstName R4
TEXT -2112 2984 Left 2 !.tran 100ms
