Version 4
SHEET 1 1992 1032
WIRE -400 -16 -864 -16
WIRE 112 -16 -304 -16
WIRE 432 -16 112 -16
WIRE 704 -16 432 -16
WIRE 1040 -16 704 -16
WIRE 1200 -16 1040 -16
WIRE 1584 -16 1344 -16
WIRE 1920 -16 1680 -16
WIRE -864 0 -864 -16
WIRE 1920 32 1920 -16
WIRE 64 64 -512 64
WIRE 384 64 272 64
WIRE 992 64 912 64
WIRE 1200 64 1200 -16
WIRE 1296 64 1200 64
WIRE -512 80 -512 64
WIRE -512 96 -512 80
WIRE 656 96 656 64
WIRE 656 96 528 96
WIRE -864 112 -864 80
WIRE 112 112 112 80
WIRE 432 112 432 80
WIRE 704 112 704 80
WIRE 1040 112 1040 80
WIRE 1344 112 1344 80
WIRE 1920 160 1920 112
WIRE -512 192 -512 160
WIRE 1584 208 1344 208
WIRE 1920 208 1680 208
WIRE -400 224 -864 224
WIRE 112 224 -304 224
WIRE 432 224 112 224
WIRE 736 224 432 224
WIRE 1056 224 736 224
WIRE 1184 224 1056 224
WIRE -864 240 -864 224
WIRE 1920 256 1920 208
WIRE 1184 288 1184 224
WIRE 1296 288 1184 288
WIRE 64 304 -512 304
WIRE 272 304 272 64
WIRE 384 304 272 304
WIRE 688 304 576 304
WIRE 912 304 912 64
WIRE 1008 304 912 304
WIRE -512 336 -512 304
WIRE 1344 336 1344 304
WIRE 736 352 736 320
WIRE 1056 352 1056 320
WIRE -864 368 -864 320
WIRE 112 368 112 320
WIRE 432 368 432 320
WIRE 1920 400 1920 336
WIRE -512 448 -512 416
WIRE 272 480 272 304
WIRE 272 480 -1056 480
WIRE -384 544 -864 544
WIRE 112 544 -288 544
WIRE 432 544 112 544
WIRE 720 544 432 544
WIRE 1056 544 720 544
WIRE 1184 544 1056 544
WIRE 1600 544 1344 544
WIRE 1920 544 1696 544
WIRE -1056 560 -1056 480
WIRE -864 576 -864 544
WIRE 1920 592 1920 544
WIRE 64 624 -512 624
WIRE 384 624 352 624
WIRE 576 624 576 304
WIRE 672 624 576 624
WIRE 912 624 912 304
WIRE 1008 624 912 624
WIRE 1184 624 1184 544
WIRE 1296 624 1184 624
WIRE -512 640 -512 624
WIRE 720 672 720 640
WIRE 1056 672 1056 640
WIRE 1344 672 1344 640
WIRE 432 688 432 640
WIRE -864 704 -864 656
WIRE -1056 720 -1056 640
WIRE -512 720 -512 704
WIRE 112 720 112 640
WIRE 1920 736 1920 672
WIRE -512 752 -512 720
WIRE 352 800 352 624
WIRE 416 800 352 800
WIRE 528 800 528 96
WIRE 528 800 416 800
WIRE 416 848 416 800
WIRE 576 848 576 624
WIRE 912 848 912 624
WIRE 416 976 416 928
WIRE 576 992 576 928
WIRE 912 992 912 928
FLAG -864 112 0
FLAG -864 368 0
FLAG -864 704 0
FLAG -1056 720 0
FLAG -512 752 0
FLAG -512 448 0
FLAG -512 192 0
FLAG 112 112 0
FLAG 112 368 0
FLAG 432 688 0
FLAG 432 368 0
FLAG 432 112 0
FLAG 736 352 0
FLAG 720 672 0
FLAG 1056 352 0
FLAG 1040 112 0
FLAG 1056 672 0
FLAG 1344 672 0
FLAG 1344 336 0
FLAG 1344 112 0
FLAG 112 720 0
FLAG 704 112 0
FLAG 416 976 0
FLAG 576 992 0
FLAG 912 992 0
FLAG 1920 736 0
FLAG 1920 400 0
FLAG 1920 160 0
SYMBOL nmos 64 -16 R0
SYMATTR InstName M1
SYMBOL nmos 384 -16 R0
WINDOW 3 56 79 Left 2
SYMATTR InstName M2
SYMBOL nmos 656 -16 R0
WINDOW 3 59 78 Left 2
SYMATTR InstName M3
SYMBOL nmos 992 -16 R0
SYMATTR InstName M4
SYMBOL voltage -512 64 R0
WINDOW 3 24 96 Invisible 2
WINDOW 123 0 0 Left 0
WINDOW 39 0 0 Left 0
SYMATTR Value PULSE(0 1.8 0 0 0 10ms 100ms 1)
SYMATTR InstName V1
SYMBOL nmos 64 224 R0
SYMATTR InstName M5
SYMBOL nmos 384 224 R0
SYMATTR InstName M6
SYMBOL nmos 688 224 R0
SYMATTR InstName M7
SYMBOL nmos 1008 224 R0
SYMATTR InstName M8
SYMBOL nmos 64 544 R0
SYMATTR InstName M9
SYMBOL nmos 384 544 R0
SYMATTR InstName M10
SYMBOL nmos 672 544 R0
SYMATTR InstName M11
SYMBOL nmos 1008 544 R0
SYMATTR InstName M12
SYMBOL nmos 1296 -16 R0
SYMATTR InstName M13
SYMBOL nmos 1296 208 R0
SYMATTR InstName M14
SYMBOL nmos 1296 544 R0
SYMATTR InstName M15
SYMBOL memristor -352 -16 R270
SYMATTR InstName U1
SYMBOL memristor -352 224 R270
SYMATTR InstName U2
SYMBOL memristor -336 544 R270
SYMATTR InstName U3
SYMBOL memristor 1648 544 R90
SYMATTR InstName U4
SYMBOL memristor 1632 208 R90
SYMATTR InstName U5
SYMBOL memristor 1632 -16 R90
SYMATTR InstName U6
SYMBOL voltage -864 -16 R0
WINDOW 3 24 44 Left 2
WINDOW 123 0 0 Left 0
WINDOW 39 0 0 Left 0
SYMATTR Value 1.8
SYMATTR InstName V2
SYMBOL voltage -864 224 R0
WINDOW 3 24 44 Left 2
WINDOW 123 0 0 Left 0
WINDOW 39 0 0 Left 0
SYMATTR Value 1.8
SYMATTR InstName V3
SYMBOL voltage -512 320 R0
WINDOW 3 24 96 Invisible 2
WINDOW 123 0 0 Left 0
WINDOW 39 0 0 Left 0
SYMATTR Value PULSE(0 1.8 12ms 0 0 10ms 100ms 1)
SYMATTR InstName V4
SYMBOL voltage -864 560 R0
WINDOW 3 24 44 Left 2
WINDOW 123 0 0 Left 0
WINDOW 39 0 0 Left 0
SYMATTR Value 1.8
SYMATTR InstName V5
SYMBOL voltage -512 624 R0
WINDOW 3 24 96 Invisible 2
WINDOW 123 0 0 Left 0
WINDOW 39 0 0 Left 0
SYMATTR Value PULSE(0 1.8 36ms 0 0 10ms 100ms 1)
SYMATTR InstName V6
SYMBOL voltage -1056 544 R0
WINDOW 3 24 44 Left 2
WINDOW 123 0 0 Left 0
WINDOW 39 0 0 Left 0
SYMATTR Value PULSE(0 1.8 24ms 0 0 10ms 100ms 1)
SYMATTR InstName V7
SYMBOL voltage 912 832 R0
WINDOW 3 24 96 Invisible 2
WINDOW 123 0 0 Left 0
WINDOW 39 0 0 Left 0
SYMATTR Value PULSE(0 1.8 72ms 0 0 10ms 100ms 1)
SYMATTR InstName V8
SYMBOL voltage 576 832 R0
WINDOW 3 24 96 Invisible 2
WINDOW 123 0 0 Left 0
WINDOW 39 0 0 Left 0
SYMATTR Value PULSE(0 1.8 60ms 0 0 10ms 100ms 1)
SYMATTR InstName V9
SYMBOL voltage 416 832 R0
WINDOW 3 24 96 Invisible 2
WINDOW 123 0 0 Left 0
WINDOW 39 0 0 Left 0
SYMATTR Value PULSE(0 1.8 48ms 0 0 10ms 100ms 1)
SYMATTR InstName V10
SYMBOL voltage 1920 16 R0
WINDOW 3 24 44 Left 2
WINDOW 123 0 0 Left 0
WINDOW 39 0 0 Left 0
SYMATTR Value 1.8
SYMATTR InstName V11
SYMBOL voltage 1920 240 R0
WINDOW 3 24 44 Left 2
WINDOW 123 0 0 Left 0
WINDOW 39 0 0 Left 0
SYMATTR Value 1.8
SYMATTR InstName V12
SYMBOL voltage 1920 576 R0
WINDOW 3 24 44 Left 2
WINDOW 123 0 0 Left 0
WINDOW 39 0 0 Left 0
SYMATTR Value 1.8
SYMATTR InstName V13
TEXT -1088 1016 Left 2 !.tran 100ms
